12

C      -1.21283079       0.70022824      -0.00000001
C      -1.21283085       2.10068463      -0.00000000
C      -0.00000000       2.80091280       0.00000000
C       1.21283080       2.10068451       0.00000002
C       1.21283080       0.70022816       0.00000001
C       0.00000000       0.00000000       0.00000000
H      -2.13947805       2.63568461       0.00000000
H       0.00000005       3.87091281      -0.00000002
H       2.13947803       2.63568445       0.00000003
H       2.13947799       0.16522817       0.00000002
H      -0.00000001      -1.07000001      -0.00000000
H      -2.14813823       0.16022824      -0.00000002
